SOL 101
CEND
SUBCASE 1
  DISPLACEMENT(PLOT,PRINT)=ALL
  STRESS(PLOT,PRINT)=ALL
  LOAD = 1
  SPC = 1000
BEGIN BULK
$  nid,cp, xyz
GRID,1,0, 0.0,0.0,0.0
GRID,2,0, 1.0,1.0,0.0
GRID,3,0, 0.0,1.0,0.0
$    eid pid n1 n2
CROD,10,20,1,2
CROD,11,20,1,3
CROD,13,20,2,3
$    pid mid a
PROD,20,100,0.1
$    mid  E    G nu, rho
MAT1,100,3.0e7,,0.3, 0.3
$    sid   dofs   nid
SPC1,10000,123456,1
SPC1,10000,123456,3
$    sid nid, cid, mag, xyz
FORCE, 1, 2,  0,   1.0, 1., -1, 0.
ENDDATA
